powerflow/autotest/test_ami_average_power_features_NR_fix.glm
// Tests "average reporting" for AMI systems
//Checks the power values

clock {
     timezone PST+8PDT;
     starttime '2012-01-01 00:00:00';
     stoptime '2012-01-01 01:00:00';
}

//#set profiler=1
#set double_format=%+.12lg

module tape;
module assert;
module powerflow {
	solver_method NR;
	maximum_voltage_error 1e-9;
}

object triplex_line_conductor {
	name tplex_line_cond;
	resistance 0.97;
	geometric_mean_radius 0.0111;
}

object triplex_line_conductor {
	name tplex_line_cond1;
	resistance 0.97;
	geometric_mean_radius 0.0111;
}

object triplex_line_conductor {
	name tplex_line_cond2;
	resistance 0.97;
	geometric_mean_radius 0.0111;
}

object triplex_line_configuration {
	name triplex_line_configuration_1;
	conductor_1 tplex_line_cond;
	conductor_2 tplex_line_cond;
	conductor_N tplex_line_cond;
	insulation_thickness 0.08;
	diameter 0.368;
}

//Simple three-phase line
object line_configuration {
	name OHL_config;
	z11 0.3465+1.0179j;	//Ohms/mile
	z12 0.1560+0.5017j;
	z13 0.1580+0.4236j;
	z21 0.1560+0.5017j;
	z22 0.3375+1.0478j;
	z23 0.1535+0.3849j;
	z31 0.1580+0.4236j;
	z32 0.1535+0.3849j;
	z33 0.3414+1.0348j;
}

//Three-phase system
object meter {
	bustype SWING;
	name THREE_PHASE_ROOT;
	phases ABCN;
	measured_stats_interval 7.0 min;
	nominal_voltage 7200.0;
    
    // Three phase:
	object double_assert {
	  parent "THREE_PHASE_ROOT";
	  name "THREE_PHASE_ROOT_double_assert_0";
		target measured_avg_real_power_in_interval;
		within 0.01;
		object player {
		  parent "THREE_PHASE_ROOT_double_assert_0";
			property value;
			file "../data_AMI_average_test_7_min_avg_real_power_threephase.csv";
		};
	};
	object double_assert {
	  parent "THREE_PHASE_ROOT";
	  name "THREE_PHASE_ROOT_double_assert_1";
		target measured_avg_reactive_power_in_interval;
		within 0.01;
		object player {
		  parent "THREE_PHASE_ROOT_double_assert_1";
			property value;
			file "../data_AMI_average_test_7_min_avg_reac_power_threephase.csv";
		};
	};
    
    // Per phase:
    // A:
    object double_assert {
      parent "THREE_PHASE_ROOT";
      name "THREE_PHASE_ROOT_double_assert_2";
		target measured_avg_real_power_A_in_interval;
		within 0.01;
		object player {
		  parent "THREE_PHASE_ROOT_double_assert_2";
			property value;
			file "../data_AMI_average_test_7_min_avg_real_power_A.csv";
		};
	};
	object double_assert {
	  parent "THREE_PHASE_ROOT";
	  name "THREE_PHASE_ROOT_double_assert_3";
		target measured_avg_reactive_power_A_in_interval;
		within 0.01;
		object player {
		  parent "THREE_PHASE_ROOT_double_assert_3";
			property value;
			file "../data_AMI_average_test_7_min_avg_reac_power_A.csv";
		};
	};
    // B:
    object double_assert {
      parent "THREE_PHASE_ROOT";
      name "THREE_PHASE_ROOT_double_assert_4";
		target measured_avg_real_power_B_in_interval;
		within 0.01;
		object player {
		  parent "THREE_PHASE_ROOT_double_assert_4";
			property value;
			file "../data_AMI_average_test_7_min_avg_real_power_B.csv";
		};
	};
	object double_assert {
	  parent "THREE_PHASE_ROOT";
	  name "THREE_PHASE_ROOT_double_assert_5";
		target measured_avg_reactive_power_B_in_interval;
		within 0.01;
		object player {
		  parent "THREE_PHASE_ROOT_double_assert_5";
			property value;
			file "../data_AMI_average_test_7_min_avg_reac_power_B.csv";
		};
	};
    // C:
    object double_assert {
      parent "THREE_PHASE_ROOT";
      name "THREE_PHASE_ROOT_double_assert_6";
		target measured_avg_real_power_C_in_interval;
		within 0.01;
		object player {
		  parent "THREE_PHASE_ROOT_double_assert_6";
			property value;
			file "../data_AMI_average_test_7_min_avg_real_power_C.csv";
		};
	};
	object double_assert {
	  parent "THREE_PHASE_ROOT";
	  name "THREE_PHASE_ROOT_double_assert_7";
		target measured_avg_reactive_power_C_in_interval;
		within 0.01;
		object player {
		  parent "THREE_PHASE_ROOT_double_assert_7";
			property value;
			file "../data_AMI_average_test_7_min_avg_reac_power_C.csv";
		};
	};   
	// object recorder
	// {
		// property "measured_real_power,measured_reactive_power,measured_avg_real_power_in_interval,measured_avg_reactive_power_in_interval,measured_real_max_power_in_interval,measured_reactive_max_power_in_interval,measured_real_min_power_in_interval,measured_reactive_min_power_in_interval";
		// interval 60;
		// file "ami_test_out_data_7min_new_threephase.csv";
	// };
}

object load {
	name THREE_PHASE_LOAD;
	phases ABCN;
    parent THREE_PHASE_ROOT;
	nominal_voltage 7200.0;
	constant_power_A 2500.0-120.0j;
	constant_power_B 2500.0-120.0j;
	constant_power_C 2500.0-120.0j;
	object player {
	  parent "THREE_PHASE_LOAD";
		property constant_power_A;
		file "../data_power_values_ami_average_test_A.player";
	};
	object player {
	  parent "THREE_PHASE_LOAD";
		property constant_power_B;
		file "../data_power_values_ami_average_test_B.player";
	};
	object player {
	  parent "THREE_PHASE_LOAD";
		property constant_power_C;
		file "../data_power_values_ami_average_test_C.player";
	};
};

//object overhead_line {
//	phases ABCN;
//	name three_phase_line;
//	from THREE_PHASE_ROOT;
//	to THREE_PHASE_LOAD;
//	length 100.0 ft;
//	configuration OHL_config;
//}


//Triplex system
object triplex_meter {
	bustype SWING;
	name ROOT;
	phases BS;
	nominal_voltage 120.0;
}

object triplex_line {
	name IMALINE;
	phases BS;
	from ROOT;
	to NOTROOT;
	configuration triplex_line_configuration_1;
	length 50.0 ft;
}

object triplex_line {
	name IMALINE2;
	phases BS;
	from ROOT;
	to NOTROOT2;
	configuration triplex_line_configuration_1;
	length 50.0 ft;
}

object triplex_meter {
	name NOTROOT2;
	phases BS;
	nominal_voltage 120.0;
	measured_stats_interval 7.0 min;
	power_12 2500.0-120.0j;
	// object recorder
	// {
		// property "measured_real_power,measured_reactive_power,measured_avg_real_power_in_interval,measured_avg_reactive_power_in_interval,measured_real_max_power_in_interval,measured_reactive_max_power_in_interval,measured_real_min_power_in_interval,measured_reactive_min_power_in_interval";
		// interval 60;
		// file "ami_test_out_data_7min_new.csv";
	// };
	object player {
	  parent "NOTROOT2";
		property power_12;
		file "../data_power_values_ami_average_test.player";
	};
}

object triplex_meter {
	name NOTROOT;
	phases BS;
	nominal_voltage 120.0;
	measured_stats_interval 5.0 min;
	power_12 2500.0-120.0j;
	object double_assert {
	  parent "NOTROOT";
	  name "NOTROOT_double_assert_0";
		target measured_avg_real_power_in_interval;
		within 0.01;
		object player {
		  parent "NOTROOT_double_assert_0";
			property value;
			file "../data_AMI_average_test_5_min_avg_real_power_triplex.csv";
		};
	};
	object double_assert {
	  parent "NOTROOT";
	  name "NOTROOT_double_assert_1";
		target measured_avg_reactive_power_in_interval;
		within 0.01;
		object player {
		  parent "NOTROOT_double_assert_1";
			property value;
			file "../data_AMI_average_test_5_min_avg_reac_power_triplex.csv";
		};
	};
	// object recorder
	// {
		// property "measured_real_power,measured_reactive_power,measured_avg_real_power_in_interval,measured_avg_reactive_power_in_interval";
		// interval 60;
		// file "ami_test_out_data_5min_new.csv";
	// };
	object player {
	  parent "NOTROOT";
		property power_12;
		file "../data_power_values_ami_average_test.player";
	};
}